51
symmetry d5h
Os       0.000000000      0.000000000      0.000000000
C        0.379542806     -1.168112645     -1.846266395
C        0.379542806     -1.168112645      1.846266395
C        1.228226319      0.000000000     -1.846266395
C       -0.993655965     -0.721933317     -1.846266395
C       -0.993655965     -0.721933317      1.846266395
C        1.228226319      0.000000000      1.846266395
C        0.379542806      1.168112645     -1.846266395
C       -0.993655965      0.721933317     -1.846266395
C       -0.993655965      0.721933317      1.846266395
C        0.379542806      1.168112645      1.846266395
C        2.725619119      0.000000000     -1.916434727
H        3.082960380      0.000000000     -2.961820694
H        3.146538865      0.884994149     -1.418559570
H        3.146538865     -0.884994149     -1.418559570
C        0.842262628      2.592217824     -1.916434727
H        1.814013435      2.719058060     -1.418559570
H        0.952687151      2.932069559     -2.961820694
H        0.130654531      3.266014524     -1.418559570
C       -2.205072187      1.602078722     -1.916434727
H       -2.025416906      2.565464447     -1.418559570
H       -2.494167341      1.812118645     -2.961820694
H       -3.065789925      1.133513834     -1.418559570
C       -2.205072187     -1.602078722     -1.916434727
H       -3.065789925     -1.133513834     -1.418559570
H       -2.494167341     -1.812118645     -2.961820694
H       -2.025416906     -2.565464447     -1.418559570
C        0.842262628     -2.592217824     -1.916434727
H        0.130654531     -3.266014524     -1.418559570
H        0.952687151     -2.932069559     -2.961820694
H        1.814013435     -2.719058060     -1.418559570
C        0.842262628     -2.592217824      1.916434727
H        0.952687151     -2.932069559      2.961820694
H        0.130654531     -3.266014524      1.418559570
H        1.814013435     -2.719058060      1.418559570
C        2.725619119      0.000000000      1.916434727
H        3.082960380      0.000000000      2.961820694
H        3.146538865     -0.884994149      1.418559570
H        3.146538865      0.884994149      1.418559570
C        0.842262628      2.592217824      1.916434727
H        0.952687151      2.932069559      2.961820694
H        1.814013435      2.719058060      1.418559570
H        0.130654531      3.266014524      1.418559570
C       -2.205072187      1.602078722      1.916434727
H       -2.494167341      1.812118645      2.961820694
H       -2.025416906      2.565464447      1.418559570
H       -3.065789925      1.133513834      1.418559570
C       -2.205072187     -1.602078722      1.916434727
H       -2.494167341     -1.812118645      2.961820694
H       -3.065789925     -1.133513834      1.418559570
H       -2.025416906     -2.565464447      1.418559570
